Material: material_optical_constants / Si-Franta-25C
Optical constants. D. Franta, A. Dubroka, C. Wang, A. Giglia, J. Vohánka, P. Franta, I. Ohlídal. Temperature-dependent dispersion model of float zone crystalline silicon, Appl. Surf. Sci. 421, 405-419 (2017) (Numerical data kindly provided by Daniel Franta)
Comments: Float zone c-Si; Heterogenous data processing combining ellipsometric and spectrophotometric measurements with refractive index determined in B. J. Frey, D. B. Leviton, T. J. Madison. Temperature-dependent refractive index of silicon and germanium, Proc. SPIE 6273, 62732J (2006). Numerical procedures updated in D. Franta, P. Franta, J. Vohánka, M. Čermák, I. Ohlídal. Determination of thicknesses and temperatures of crystalline silicon wafers from optical measurements in the far infrared region, J. Appl. Phys. 123, 185707 (2018). Temperature 25 °C."
Conditions: {"temperature": 25}
wavelength (um)	n	k
0.392925	5.86560618649	0.442157443857
0.394739	5.79260614265	0.408756489038
0.396561	5.72350369795	0.37930290453
0.398391	5.65804306949	0.353342953286
0.40023	5.59603753604	0.33044742471
0.402078	5.53732574468	0.310202755309
0.403934	5.48174253654	0.29221866631
0.405798	5.42910858848	0.276138540237
0.407671	5.37923093468	0.261647187591
0.409553	5.33190781897	0.24847460782
0.411443	5.28693634922	0.236395949034
0.413342	5.24411672444	0.225228793151
0.41525	5.20326101351	0.214828385965
0.417167	5.16419450229	0.205082245207
0.419092	5.12675609217	0.19590452858
0.421027	5.09080458369	0.18723041126
0.42297	5.05621322818	0.179011470127
0.424923	5.02287070615	0.171211501044
0.426884	4.9906824504	0.163803077585
0.428854	4.95956434173	0.156765072587
0.430834	4.92944409343	0.150080535611
0.432823	4.90026003711	0.14373519634
0.43482	4.87195852145	0.137716436784
0.436827	4.84449195675	0.132012572696
0.438844	4.81781894805	0.126612330051
0.440869	4.79190303544	0.121504551067
0.442904	4.76671231378	0.1166780106
0.444949	4.74221682764	0.112121380252
0.447002	4.71839004191	0.107823152616
0.449066	4.69520839908	0.103771658755
0.451138	4.67264868614	0.09995515761
0.453221	4.65069089901	0.0963618167241
0.455313	4.62931431778	0.0929798497211
0.457414	4.60850100897	0.0897974977039
0.459526	4.58823350422	0.086803133971
0.461647	4.56849427962	0.0839853255734
0.463778	4.54926682456	0.0813328618837
0.465918	4.53053604558	0.0788347942328
0.468069	4.51228598751	0.0764805175386
0.47023	4.49450224393	0.0742597636574
0.4724	4.47716969412	0.0721626717049
0.47458	4.46027394864	0.0701797896956
0.476771	4.44380188765	0.0683020889827
0.478972	4.42773978085	0.0665210115032
0.481183	4.41207400689	0.0648284704288
0.483404	4.39679073157	0.0632168631676
0.485635	4.38187881374	0.0616790343174
0.487876	4.36732356178	0.0602083660436
0.490128	4.35311478075	0.0587986609516
0.492391	4.33923907259	0.0574442436617
0.494664	4.32568605427	0.0561398660019
0.496947	4.31244395345	0.054880754447
0.499241	4.29950216048	0.0536625614051
0.501545	4.28684872175	0.0524813800529
0.50386	4.27447357818	0.0513336846904
0.506186	4.26236847457	0.0502163132845
0.508522	4.25052282311	0.0491264952755
0.510869	4.23892615029	0.048061798242
0.513227	4.22757058337	0.0470200768182
0.515596	4.21644838088	0.04599947849
0.517976	4.20554955353	0.0449984451455
0.520367	4.19486775276	0.0440156250898
0.522769	4.18439496242	0.0430499080217
0.525182	4.17412343697	0.0421003809524
0.527606	4.16404612681	0.0411663022902
0.530042	4.15415789968	0.0402470696707
0.532488	4.14445132364	0.0393422419043
0.534946	4.13492090956	0.0384514784967
0.537415	4.12556107557	0.0375745425434
0.539896	4.1163667146	0.0367112793545
0.542388	4.10733256294	0.0358616075018
0.544891	4.09845325449	0.0350255046388
0.547406	4.08972511926	0.0342029801079
0.549933	4.08114310321	0.0333940907108
0.552471	4.07270370204	0.0325989062308
0.555022	4.06440210121	0.0318175246469
0.557583	4.05623628029	0.0310500321227
0.560157	4.0482016698	0.0302965390159
0.562743	4.04029376908	0.0295571531171
0.56534	4.03251185531	0.028831948693
0.56795	4.02485115733	0.0281210205687
0.570571	4.01730915669	0.0274244348321
0.573205	4.00988395676	0.0267422392256
0.575851	4.00257127889	0.0260744814615
0.578509	3.99536969993	0.0254211728656
0.581179	3.98827772382	0.0247823079905
0.583862	3.98129179811	0.0241578762016
0.586557	3.97440924034	0.0235478428075
0.589264	3.9676287339	0.0229521470782
0.591984	3.96094834615	0.0223707148591
0.594716	3.95436590496	0.0218034567161
0.597461	3.94787941334	0.0212502663457
0.600219	3.94148792102	0.0207110170304
0.60299	3.93518793107	0.0201855817253
0.605773	3.92897883665	0.0196738053081
0.608569	3.92285943263	0.0191755244894
0.611378	3.91682697371	0.0186905730282
0.6142	3.91088060262	0.0182187659705
0.617035	3.90501871168	0.0177599138063
0.619883	3.89923957677	0.0173138202815
0.622744	3.89354183659	0.0168802812759
0.625619	3.88792469203	0.0164590851216
0.628507	3.8823860873	0.0160500213179
0.631408	3.87692486745	0.0156528720626
0.634322	3.87153979512	0.0152674173767
0.63725	3.86622956607	0.0148934357507
0.640191	3.86099333614	0.0145307028149
0.643146	3.85582890519	0.0141789988412
0.646115	3.85073601709	0.013838096869
0.649097	3.84571276157	0.0135077766579
0.652094	3.84075902261	0.0131878126119
0.655103	3.83587271638	0.0128779874927
0.658127	3.83105368687	0.0125780791959
0.661165	3.82630013269	0.0122878732023
0.664217	3.82161158025	0.0120071528453
0.667283	3.8169865992	0.0117357069444
0.670363	3.81242411692	0.0114733256141
0.673457	3.80792382519	0.0112197992188
0.676566	3.80348414459	0.0109749244557
0.679688	3.79910425911	0.0107384981339
0.682826	3.79478378356	0.010510318185
0.685978	3.79052150221	0.0102901870043
0.689144	3.78631646826	0.0100779080344
0.692325	3.78216778557	0.00987328608878
0.69552	3.77807531017	0.00967612518355
0.698731	3.77403748589	0.00948623370621
0.701956	3.7700536818	0.0093034177917
0.705196	3.76612360743	0.00912748236581
0.708451	3.76224582692	0.00895823408819
0.711721	3.75842052848	0.00879547388941
0.715006	3.75464607781	0.00863900441323
0.718307	3.75092298394	0.00848861978702
0.721622	3.74724966469	0.00834411447852
0.724953	3.74362544226	0.00820527529513
0.728299	3.74005018107	0.00807188120267
0.731661	3.73652286051	0.00794370525133
0.735038	3.73304321335	0.00782050974382
0.738431	3.72961114105	0.00770204625663
0.741839	3.72622488162	0.00758805805877
0.745264	3.72288493315	0.00747827065586
0.748704	3.71959007218	0.00737239867985
0.752159	3.71634023188	0.00727013877223
0.755631	3.71313500633	0.00717117147615
0.759119	3.70997341	0.00707516066678
0.762623	3.70685534164	0.00698174997079
0.766143	3.70378009914	0.00689056518414
0.769679	3.70074684985	0.0068012132777
0.773232	3.69775565251	0.00671328095096
0.776801	3.69480495081	0.00662634023043
0.780387	3.69189535841	0.00653994327293
0.783989	3.6890258336	0.00645363176278
0.787608	3.68619540155	0.00636693708834
0.791243	3.68340360301	0.0062793838546
0.794895	3.68064973919	0.00619049646048
0.798564	3.67793324677	0.00609980468257
0.80225	3.67525364848	0.00600685094403
0.805953	3.67260872628	0.00591120127559
0.809673	3.66999865159	0.00581244723037
0.813411	3.66742257987	0.00571022060235
0.817165	3.66487908453	0.0056042018687
0.820937	3.66236754341	0.0054941270257
0.824726	3.65988603002	0.00537979915539
0.828533	3.65743504709	0.00526109012385
0.832357	3.65501194519	0.00513795457293
0.836199	3.65261701383	0.00501042490826
0.840059	3.65024818414	0.00487862051892
0.843937	3.64790463036	0.00474274189184
0.847832	3.64558561437	0.0046030689851
0.851746	3.64329035439	0.00445995564295
0.855677	3.64101734273	0.00431382238142
0.859627	3.63876598229	0.00416514444396
0.863595	3.63653652189	0.00401444066958
0.867581	3.63432670178	0.00386226492005
0.871585	3.63213709469	0.00370918742843
0.875608	3.62996654706	0.00355578735917
0.87965	3.62781564686	0.00340263739878
0.88371	3.62568292364	0.0032502968418
0.887789	3.62356898803	0.00309929837715
0.891887	3.62147307984	0.00295014371925
0.896004	3.61939558913	0.00280329549437
0.90014	3.61733585299	0.00265917491895
0.904294	3.61529447701	0.00251815741147
0.908469	3.61327114938	0.00238057315146
0.912662	3.61126552014	0.0022467064623
0.916874	3.60927806166	0.00211679640772
0.921107	3.60730905352	0.00199103937472
0.925358	3.60535813596	0.00186959170232
0.929629	3.60342596119	0.00175257157569
0.93392	3.60151145153	0.00164006344965
0.938231	3.59961526878	0.0015321194051
0.942562	3.59773810071	0.00142876317852
0.946913	3.59587859903	0.0013299939294
0.951283	3.59403793975	0.00123578728509
0.955674	3.59221592894	0.00114609964868
0.960085	3.59041223548	0.00106087023033
0.964517	3.58862720899	0.000980023212178
0.968969	3.58686054453	0.000903470391965
0.973442	3.5851125006	0.000831112894966
0.977935	3.58338219311	0.00076284349511
0.982449	3.58167091599	0.000698547605545
0.986983	3.57997783472	0.000638105828228
0.991539	3.57830275389	0.000581394764092
0.996116	3.57664570682	0.000528288426647
1.00071	3.5750068462	0.000478659432659
